Rede69_VLN_Node_1_capacitor.Txt

LINE-GROUND and LINE-LINE VOLTAGES BY BUS & NODE

Bus   Node    VLN (kV)   Angle      pu     Base kV    Node-Node   VLL (kV)  Angle      pu

0 ... 1       7.3086 /_    0.0   0.99991    12.660        1-2     12.659 /_   30.0   0.99991
   -  2       7.3086 /_ -120.0   0.99991    12.660        2-3     12.659 /_  -90.0   0.99991
   -  3       7.3086 /_  120.0   0.99991    12.660        3-1     12.659 /_  150.0   0.99991
5 ... 1       7.2673 /_   -0.4   0.99426    12.660        1-2     12.587 /_   29.6   0.99426
   -  2       7.2673 /_ -120.4   0.99426    12.660        2-3     12.587 /_  -90.4   0.99426
   -  3       7.2673 /_  119.6   0.99426    12.660        3-1     12.587 /_  149.6   0.99426
5BT . 1      0.12622 /_  -30.4   0.99375     0.220        1-2    0.21862 /_   -0.4   0.99375
   -  2      0.12622 /_ -150.4   0.99375     0.220        2-3    0.21862 /_ -120.4   0.99375
   -  3      0.12622 /_   89.6   0.99375     0.220        3-1    0.21862 /_  119.6   0.99375
6 ... 1       7.2271 /_   -0.7   0.98876    12.660        1-2     12.518 /_   29.3   0.98876
   -  2       7.2271 /_ -120.7   0.98876    12.660        2-3     12.518 /_  -90.7   0.98876
   -  3       7.2271 /_  119.3   0.98876    12.660        3-1     12.518 /_  149.3   0.98876
6BT . 1      0.12467 /_  -31.2   0.98148     0.220        1-2    0.21593 /_   -1.2   0.98148
   -  2      0.12467 /_ -151.2   0.98148     0.220        2-3    0.21593 /_ -121.2   0.98148
   -  3      0.12467 /_   88.8   0.98148     0.220        3-1    0.21593 /_  118.8   0.98148
7 ... 1       7.2176 /_   -0.7   0.98747    12.660        1-2     12.501 /_   29.3   0.98747
   -  2       7.2176 /_ -120.7   0.98747    12.660        2-3     12.501 /_  -90.7   0.98747
   -  3       7.2176 /_  119.3   0.98747    12.660        3-1     12.501 /_  149.3   0.98747
7BT . 1      0.12477 /_  -31.1   0.98227     0.220        1-2     0.2161 /_   -1.1   0.98227
   -  2      0.12477 /_ -151.1   0.98227     0.220        2-3     0.2161 /_ -121.1   0.98227
   -  3      0.12477 /_   88.9   0.98227     0.220        3-1     0.2161 /_  118.9   0.98227
8 ... 1        7.213 /_   -0.8   0.98683    12.660        1-2     12.493 /_   29.2   0.98683
   -  2        7.213 /_ -120.8   0.98683    12.660        2-3     12.493 /_  -90.8   0.98683
   -  3        7.213 /_  119.2   0.98683    12.660        3-1     12.493 /_  149.2   0.98683
8BT . 1      0.12468 /_  -31.2   0.98157     0.220        1-2    0.21595 /_   -1.2   0.98157
   -  2      0.12468 /_ -151.2   0.98157     0.220        2-3    0.21595 /_ -121.2   0.98157
   -  3      0.12468 /_   88.8   0.98157     0.220        3-1    0.21595 /_  118.8   0.98157
9 ... 1       7.1773 /_   -0.7   0.98195    12.660        1-2     12.432 /_   29.3   0.98195
   -  2       7.1773 /_ -120.7   0.98195    12.660        2-3     12.432 /_  -90.7   0.98195
   -  3       7.1773 /_  119.3   0.98195    12.660        3-1     12.432 /_  149.3   0.98195
9BT . 1       0.1241 /_  -31.0   0.97707     0.220        1-2    0.21495 /_   -1.0   0.97707
   -  2       0.1241 /_ -151.0   0.97707     0.220        2-3    0.21495 /_ -121.0   0.97707
   -  3       0.1241 /_   89.0   0.97707     0.220        3-1    0.21495 /_  119.0   0.97707
10 .. 1       7.1695 /_   -0.7   0.98088    12.660        1-2     12.418 /_   29.3   0.98088
   -  2       7.1695 /_ -120.7   0.98088    12.660        2-3     12.418 /_  -90.7   0.98088
   -  3       7.1695 /_  119.3   0.98088    12.660        3-1     12.418 /_  149.3   0.98088
10BT  1      0.12329 /_  -31.4   0.97062     0.220        1-2    0.21354 /_   -1.4   0.97062
   -  2      0.12329 /_ -151.4   0.97062     0.220        2-3    0.21354 /_ -121.4   0.97062
   -  3      0.12329 /_   88.6   0.97062     0.220        3-1    0.21354 /_  118.6   0.97062
11 .. 1       7.1472 /_   -0.6   0.97783    12.660        1-2     12.379 /_   29.4   0.97783
   -  2       7.1472 /_ -120.6   0.97783    12.660        2-3     12.379 /_  -90.6   0.97783
   -  3       7.1472 /_  119.4   0.97783    12.660        3-1     12.379 /_  149.4   0.97783
11BT  1      0.12289 /_  -31.4   0.96753     0.220        1-2    0.21286 /_   -1.4   0.96753
   -  2      0.12289 /_ -151.4   0.96753     0.220        2-3    0.21286 /_ -121.4   0.96753
   -  3      0.12289 /_   88.6   0.96753     0.220        3-1    0.21286 /_  118.6   0.96753
12 .. 1       7.1269 /_   -0.6   0.97505    12.660        1-2     12.344 /_   29.4   0.97505
   -  2       7.1269 /_ -120.6   0.97505    12.660        2-3     12.344 /_  -90.6   0.97505
   -  3       7.1269 /_  119.4   0.97505    12.660        3-1     12.344 /_  149.4   0.97505
12BT  1      0.12368 /_  -30.7   0.97371     0.220        1-2    0.21422 /_   -0.7   0.97371
   -  2      0.12368 /_ -150.7   0.97371     0.220        2-3    0.21422 /_ -120.7   0.97371
   -  3      0.12368 /_   89.3   0.97371     0.220        3-1    0.21422 /_  119.3   0.97371
13 .. 1       7.1068 /_   -0.5   0.97231    12.660        1-2     12.309 /_   29.5   0.97231
   -  2       7.1068 /_ -120.5   0.97231    12.660        2-3     12.309 /_  -90.5   0.97231
   -  3       7.1068 /_  119.5   0.97231    12.660        3-1     12.309 /_  149.5   0.97231
13BT  1      0.12333 /_  -30.6   0.97096     0.220        1-2    0.21361 /_   -0.6   0.97096
   -  2      0.12333 /_ -150.6   0.97096     0.220        2-3    0.21361 /_ -120.6   0.97096
   -  3      0.12333 /_   89.4   0.97096     0.220        3-1    0.21361 /_  119.4   0.97096
15 .. 1       7.0833 /_   -0.5   0.96909    12.660        1-2     12.269 /_   29.5   0.96909
   -  2       7.0833 /_ -120.5   0.96909    12.660        2-3     12.269 /_  -90.5   0.96909
   -  3       7.0833 /_  119.5   0.96909    12.660        3-1     12.269 /_  149.5   0.96909
15BT  1      0.12212 /_  -31.1   0.96144     0.220        1-2    0.21152 /_   -1.1   0.96144
   -  2      0.12212 /_ -151.1   0.96144     0.220        2-3    0.21152 /_ -121.1   0.96144
   -  3      0.12212 /_   88.9   0.96144     0.220        3-1    0.21152 /_  118.9   0.96144
16 .. 1       7.0773 /_   -0.4   0.96826    12.660        1-2     12.258 /_   29.6   0.96826
   -  2       7.0773 /_ -120.4   0.96826    12.660        2-3     12.258 /_  -90.4   0.96826
   -  3       7.0773 /_  119.6   0.96826    12.660        3-1     12.258 /_  149.6   0.96826
16BT  1      0.12187 /_  -31.1   0.95945     0.220        1-2    0.21108 /_   -1.1   0.95945
   -  2      0.12187 /_ -151.1   0.95945     0.220        2-3    0.21108 /_ -121.1   0.95945
   -  3      0.12187 /_   88.9   0.95945     0.220        3-1    0.21108 /_  118.9   0.95945
17 .. 1       7.0772 /_   -0.4   0.96826    12.660        1-2     12.258 /_   29.6   0.96826
   -  2       7.0772 /_ -120.4   0.96826    12.660        2-3     12.258 /_  -90.4   0.96826
   -  3       7.0772 /_  119.6   0.96826    12.660        3-1     12.258 /_  149.6   0.96826
17BT  1      0.12186 /_  -31.1   0.95944     0.220        1-2    0.21108 /_   -1.1   0.95944
   -  2      0.12186 /_ -151.1   0.95944     0.220        2-3    0.21108 /_ -121.1   0.95944
   -  3      0.12186 /_   88.9   0.95944     0.220        3-1    0.21108 /_  118.9   0.95944
19 .. 1       7.0717 /_   -0.4    0.9675    12.660        1-2     12.248 /_   29.6    0.9675
   -  2       7.0717 /_ -120.4    0.9675    12.660        2-3     12.248 /_  -90.4    0.9675
   -  3       7.0717 /_  119.6    0.9675    12.660        3-1     12.248 /_  149.6    0.9675
19BT  1      0.12287 /_  -30.4   0.96734     0.220        1-2    0.21281 /_   -0.4   0.96734
   -  2      0.12287 /_ -150.4   0.96734     0.220        2-3    0.21281 /_ -120.4   0.96734
   -  3      0.12287 /_   89.6   0.96734     0.220        3-1    0.21281 /_  119.6   0.96734
20 .. 1       7.0682 /_   -0.4   0.96702    12.660        1-2     12.242 /_   29.6   0.96702
   -  2       7.0682 /_ -120.4   0.96702    12.660        2-3     12.242 /_  -90.4   0.96702
   -  3       7.0682 /_  119.6   0.96702    12.660        3-1     12.242 /_  149.6   0.96702
20BT  1       0.1218 /_  -31.0    0.9589     0.220        1-2    0.21096 /_   -1.0    0.9589
   -  2       0.1218 /_ -151.0    0.9589     0.220        2-3    0.21096 /_ -121.0    0.9589
   -  3       0.1218 /_   89.0    0.9589     0.220        3-1    0.21096 /_  119.0    0.9589
21 .. 1       7.0681 /_   -0.4   0.96701    12.660        1-2     12.242 /_   29.6   0.96701
   -  2       7.0681 /_ -120.4   0.96701    12.660        2-3     12.242 /_  -90.4   0.96701
   -  3       7.0681 /_  119.6   0.96701    12.660        3-1     12.242 /_  149.6   0.96701
21BT  1      0.12272 /_  -30.5   0.96613     0.220        1-2    0.21255 /_   -0.5   0.96613
   -  2      0.12272 /_ -150.5   0.96613     0.220        2-3    0.21255 /_ -120.5   0.96613
   -  3      0.12272 /_   89.5   0.96613     0.220        3-1    0.21255 /_  119.5   0.96613
23 .. 1       7.0665 /_   -0.4   0.96678    12.660        1-2     12.239 /_   29.6   0.96678
   -  2       7.0665 /_ -120.4   0.96678    12.660        2-3     12.239 /_  -90.4   0.96678
   -  3       7.0665 /_  119.6   0.96678    12.660        3-1     12.239 /_  149.6   0.96678
23BT  1      0.12217 /_  -30.8   0.96181     0.220        1-2     0.2116 /_   -0.8   0.96181
   -  2      0.12217 /_ -150.8   0.96181     0.220        2-3     0.2116 /_ -120.8   0.96181
   -  3      0.12217 /_   89.2   0.96181     0.220        3-1     0.2116 /_  119.2   0.96181
25 .. 1       7.0647 /_   -0.4   0.96655    12.660        1-2     12.236 /_   29.6   0.96655
   -  2       7.0647 /_ -120.4   0.96655    12.660        2-3     12.236 /_  -90.4   0.96655
   -  3       7.0647 /_  119.6   0.96655    12.660        3-1     12.236 /_  149.6   0.96655
25BT  1      0.12245 /_  -30.6   0.96408     0.220        1-2     0.2121 /_   -0.6   0.96408
   -  2      0.12245 /_ -150.6   0.96408     0.220        2-3     0.2121 /_ -120.6   0.96408
   -  3      0.12245 /_   89.4   0.96408     0.220        3-1     0.2121 /_  119.4   0.96408
26 .. 1       7.0646 /_   -0.4   0.96653    12.660        1-2     12.236 /_   29.6   0.96653
   -  2       7.0646 /_ -120.4   0.96653    12.660        2-3     12.236 /_  -90.4   0.96653
   -  3       7.0646 /_  119.6   0.96653    12.660        3-1     12.236 /_  149.6   0.96653
26BT  1      0.12245 /_  -30.6   0.96406     0.220        1-2    0.21209 /_   -0.6   0.96406
   -  2      0.12245 /_ -150.6   0.96406     0.220        2-3    0.21209 /_ -120.6   0.96406
   -  3      0.12245 /_   89.4   0.96406     0.220        3-1    0.21209 /_  119.4   0.96406
27 .. 1       7.3083 /_    0.0   0.99988    12.660        1-2     12.658 /_   30.0   0.99988
   -  2       7.3083 /_ -120.0   0.99988    12.660        2-3     12.658 /_  -90.0   0.99988
   -  3       7.3083 /_  120.0   0.99988    12.660        3-1     12.658 /_  150.0   0.99988
27BT  1      0.25287 /_  -30.3   0.99543     0.440        1-2    0.43799 /_   -0.3   0.99543
   -  2      0.25287 /_ -150.3   0.99543     0.440        2-3    0.43799 /_ -120.3   0.99543
   -  3      0.25287 /_   89.7   0.99543     0.440        3-1    0.43799 /_  119.7   0.99543
28 .. 1       7.3078 /_    0.0   0.99981    12.660        1-2     12.658 /_   30.0   0.99981
   -  2       7.3078 /_ -120.0   0.99981    12.660        2-3     12.658 /_  -90.0   0.99981
   -  3       7.3078 /_  120.0   0.99981    12.660        3-1     12.658 /_  150.0   0.99981
28BT  1      0.25285 /_  -30.3   0.99536     0.440        1-2    0.43796 /_   -0.3   0.99536
   -  2      0.25285 /_ -150.3   0.99536     0.440        2-3    0.43796 /_ -120.3   0.99536
   -  3      0.25285 /_   89.7   0.99536     0.440        3-1    0.43796 /_  119.7   0.99536
32 .. 1       7.3042 /_    0.0   0.99931    12.660        1-2     12.651 /_   30.0   0.99931
   -  2       7.3042 /_ -120.0   0.99931    12.660        2-3     12.651 /_  -90.0   0.99931
   -  3       7.3042 /_  120.0   0.99931    12.660        3-1     12.651 /_  150.0   0.99931
32BT  1      0.25326 /_  -30.2   0.99697     0.440        1-2    0.43867 /_   -0.2   0.99697
   -  2      0.25326 /_ -150.2   0.99697     0.440        2-3    0.43867 /_ -120.2   0.99697
   -  3      0.25326 /_   89.8   0.99697     0.440        3-1    0.43867 /_  119.8   0.99697
33 .. 1       7.3018 /_    0.0   0.99897    12.660        1-2     12.647 /_   30.0   0.99897
   -  2       7.3018 /_ -120.0   0.99897    12.660        2-3     12.647 /_  -90.0   0.99897
   -  3       7.3018 /_  120.0   0.99897    12.660        3-1     12.647 /_  150.0   0.99897
33BT  1      0.25294 /_  -30.3    0.9957     0.440        1-2    0.43811 /_   -0.3    0.9957
   -  2      0.25294 /_ -150.3    0.9957     0.440        2-3    0.43811 /_ -120.3    0.9957
   -  3      0.25294 /_   89.7    0.9957     0.440        3-1    0.43811 /_  119.7    0.9957
34 .. 1       7.3013 /_    0.0   0.99891    12.660        1-2     12.646 /_   30.0   0.99891
   -  2       7.3013 /_ -120.0   0.99891    12.660        2-3     12.646 /_  -90.0   0.99891
   -  3       7.3013 /_  120.0   0.99891    12.660        3-1     12.646 /_  150.0   0.99891
34BT  1      0.25352 /_  -30.1   0.99798     0.440        1-2    0.43911 /_   -0.1   0.99798
   -  2      0.25352 /_ -150.1   0.99798     0.440        2-3    0.43911 /_ -120.1   0.99798
   -  3      0.25352 /_   89.9   0.99798     0.440        3-1    0.43911 /_  119.9   0.99798
27E . 1       7.3083 /_    0.0   0.99987    12.660        1-2     12.658 /_   30.0   0.99987
   -  2       7.3083 /_ -120.0   0.99987    12.660        2-3     12.658 /_  -90.0   0.99987
   -  3       7.3083 /_  120.0   0.99987    12.660        3-1     12.658 /_  150.0   0.99987
27EBT 1      0.25287 /_  -30.3   0.99542     0.440        1-2    0.43799 /_   -0.3   0.99542
   -  2      0.25287 /_ -150.3   0.99542     0.440        2-3    0.43799 /_ -120.3   0.99542
   -  3      0.25287 /_   89.7   0.99542     0.440        3-1    0.43799 /_  119.7   0.99542
28E . 1       7.3072 /_    0.0   0.99972    12.660        1-2     12.656 /_   30.0   0.99972
   -  2       7.3072 /_ -120.0   0.99972    12.660        2-3     12.656 /_  -90.0   0.99972
   -  3       7.3072 /_  120.0   0.99972    12.660        3-1     12.656 /_  150.0   0.99972
28EBT 1      0.25283 /_  -30.3   0.99527     0.440        1-2    0.43792 /_   -0.3   0.99527
   -  2      0.25283 /_ -150.3   0.99527     0.440        2-3    0.43792 /_ -120.3   0.99527
   -  3      0.25283 /_   89.7   0.99527     0.440        3-1    0.43792 /_  119.7   0.99527
66 .. 1       7.3061 /_    0.0   0.99957    12.660        1-2     12.655 /_   30.0   0.99957
   -  2       7.3061 /_ -120.0   0.99957    12.660        2-3     12.655 /_  -90.0   0.99957
   -  3       7.3061 /_  120.0   0.99957    12.660        3-1     12.655 /_  150.0   0.99957
66BT  1      0.25288 /_  -30.3   0.99546     0.440        1-2      0.438 /_   -0.3   0.99546
   -  2      0.25288 /_ -150.3   0.99546     0.440        2-3      0.438 /_ -120.3   0.99546
   -  3      0.25288 /_   89.7   0.99546     0.440        3-1      0.438 /_  119.7   0.99546
67 .. 1       7.3061 /_    0.0   0.99957    12.660        1-2     12.655 /_   30.0   0.99957
   -  2       7.3061 /_ -120.0   0.99957    12.660        2-3     12.655 /_  -90.0   0.99957
   -  3       7.3061 /_  120.0   0.99957    12.660        3-1     12.655 /_  150.0   0.99957
67BT  1      0.25288 /_  -30.3   0.99546     0.440        1-2      0.438 /_   -0.3   0.99546
   -  2      0.25288 /_ -150.3   0.99546     0.440        2-3      0.438 /_ -120.3   0.99546
   -  3      0.25288 /_   89.7   0.99546     0.440        3-1      0.438 /_  119.7   0.99546
68 .. 1        7.303 /_    0.0   0.99914    12.660        1-2     12.649 /_   30.0   0.99914
   -  2        7.303 /_ -120.0   0.99914    12.660        2-3     12.649 /_  -90.0   0.99914
   -  3        7.303 /_  120.0   0.99914    12.660        3-1     12.649 /_  150.0   0.99914
68BT  1      0.25376 /_  -30.0   0.99891     0.440        1-2    0.43952 /_    0.0   0.99891
   -  2      0.25376 /_ -150.0   0.99891     0.440        2-3    0.43952 /_ -120.0   0.99891
   -  3      0.25376 /_   90.0   0.99891     0.440        3-1    0.43952 /_  120.0   0.99891
70 .. 1       7.3015 /_    0.0   0.99894    12.660        1-2     12.647 /_   30.0   0.99894
   -  2       7.3015 /_ -120.0   0.99894    12.660        2-3     12.647 /_  -90.0   0.99894
   -  3       7.3015 /_  120.0   0.99894    12.660        3-1     12.647 /_  150.0   0.99894
70BT  1      0.25351 /_  -30.1   0.99792     0.440        1-2    0.43908 /_   -0.1   0.99792
   -  2      0.25351 /_ -150.1   0.99792     0.440        2-3    0.43908 /_ -120.1   0.99792
   -  3      0.25351 /_   89.9   0.99792     0.440        3-1    0.43908 /_  119.9   0.99792
89 .. 1        7.301 /_    0.0   0.99888    12.660        1-2     12.646 /_   30.0   0.99888
   -  2        7.301 /_ -120.0   0.99888    12.660        2-3     12.646 /_  -90.0   0.99888
   -  3        7.301 /_  120.0   0.99888    12.660        3-1     12.646 /_  150.0   0.99888
89BT  1      0.25222 /_  -30.1   0.99287     0.440        1-2    0.43686 /_   -0.1   0.99287
   -  2      0.25222 /_ -150.1   0.99287     0.440        2-3    0.43686 /_ -120.1   0.99287
   -  3      0.25222 /_   89.9   0.99287     0.440        3-1    0.43686 /_  119.9   0.99287
90 .. 1        7.301 /_    0.0   0.99888    12.660        1-2     12.646 /_   30.0   0.99888
   -  2        7.301 /_ -120.0   0.99888    12.660        2-3     12.646 /_  -90.0   0.99888
   -  3        7.301 /_  120.0   0.99888    12.660        3-1     12.646 /_  150.0   0.99888
90BT  1      0.25222 /_  -30.1   0.99287     0.440        1-2    0.43686 /_   -0.1   0.99287
   -  2      0.25222 /_ -150.1   0.99287     0.440        2-3    0.43686 /_ -120.1   0.99287
   -  3      0.25222 /_   89.9   0.99287     0.440        3-1    0.43686 /_  119.9   0.99287
36 .. 1       7.2999 /_   -0.1   0.99872    12.660        1-2     12.644 /_   29.9   0.99872
   -  2       7.2999 /_ -120.1   0.99872    12.660        2-3     12.644 /_  -90.1   0.99872
   -  3       7.2999 /_  119.9   0.99872    12.660        3-1     12.644 /_  149.9   0.99872
36BT  1      0.12616 /_  -30.4   0.99329     0.220        1-2    0.21852 /_   -0.4   0.99329
   -  2      0.12616 /_ -150.4   0.99329     0.220        2-3    0.21852 /_ -120.4   0.99329
   -  3      0.12616 /_   89.6   0.99329     0.220        3-1    0.21852 /_  119.6   0.99329
37 .. 1       7.2755 /_   -0.1   0.99538    12.660        1-2     12.601 /_   29.9   0.99538
   -  2       7.2755 /_ -120.1   0.99538    12.660        2-3     12.601 /_  -90.1   0.99538
   -  3       7.2755 /_  119.9   0.99538    12.660        3-1     12.601 /_  149.9   0.99538
37BT  1      0.12537 /_  -30.2   0.98701     0.220        1-2    0.21714 /_   -0.2   0.98701
   -  2      0.12537 /_ -150.2   0.98701     0.220        2-3    0.21714 /_ -120.2   0.98701
...
