Rede69_VLN_Node_inicial.Txt

LINE-GROUND and LINE-LINE VOLTAGES BY BUS & NODE

Bus   Node    VLN (kV)   Angle      pu     Base kV    Node-Node   VLL (kV)  Angle      pu

0 ... 1       7.3063 /_    0.0    0.9996    12.660        1-2     12.655 /_   30.0    0.9996
   -  2       7.3063 /_ -120.0    0.9996    12.660        2-3     12.655 /_  -90.0    0.9996
   -  3       7.3063 /_  120.0    0.9996    12.660        3-1     12.655 /_  150.0    0.9996
5 ... 1       7.2357 /_    0.0   0.98993    12.660        1-2     12.533 /_   30.0   0.98993
   -  2       7.2357 /_ -120.0   0.98993    12.660        2-3     12.533 /_  -90.0   0.98993
   -  3       7.2357 /_  120.0   0.98993    12.660        3-1     12.533 /_  150.0   0.98993
5BT . 1      0.12567 /_  -30.0   0.98942     0.220        1-2    0.21767 /_    0.0   0.98942
   -  2      0.12567 /_ -150.0   0.98942     0.220        2-3    0.21767 /_ -120.0   0.98942
   -  3      0.12567 /_   90.0   0.98942     0.220        3-1    0.21767 /_  120.0   0.98942
6 ... 1       7.1695 /_    0.1   0.98089    12.660        1-2     12.418 /_   30.1   0.98089
   -  2       7.1695 /_ -119.9   0.98089    12.660        2-3     12.418 /_  -89.9   0.98089
   -  3       7.1695 /_  120.1   0.98089    12.660        3-1     12.418 /_  150.1   0.98089
6BT . 1      0.12366 /_  -30.4   0.97355     0.220        1-2    0.21418 /_   -0.4   0.97355
   -  2      0.12366 /_ -150.4   0.97355     0.220        2-3    0.21418 /_ -120.4   0.97355
   -  3      0.12366 /_   89.6   0.97355     0.220        3-1    0.21418 /_  119.6   0.97355
7 ... 1       7.1538 /_    0.2   0.97873    12.660        1-2     12.391 /_   30.2   0.97873
   -  2       7.1538 /_ -119.8   0.97873    12.660        2-3     12.391 /_  -89.8   0.97873
   -  3       7.1538 /_  120.2   0.97873    12.660        3-1     12.391 /_  150.2   0.97873
7BT . 1      0.12365 /_  -30.2   0.97349     0.220        1-2    0.21417 /_   -0.2   0.97349
   -  2      0.12365 /_ -150.2   0.97349     0.220        2-3    0.21417 /_ -120.2   0.97349
   -  3      0.12365 /_   89.8   0.97349     0.220        3-1    0.21417 /_  119.8   0.97349
8 ... 1       7.1457 /_    0.2   0.97763    12.660        1-2     12.377 /_   30.2   0.97763
   -  2       7.1457 /_ -119.8   0.97763    12.660        2-3     12.377 /_  -89.8   0.97763
   -  3       7.1457 /_  120.2   0.97763    12.660        3-1     12.377 /_  150.2   0.97763
8BT . 1       0.1235 /_  -30.2   0.97232     0.220        1-2    0.21391 /_   -0.2   0.97232
   -  2       0.1235 /_ -150.2   0.97232     0.220        2-3    0.21391 /_ -120.2   0.97232
   -  3       0.1235 /_   89.8   0.97232     0.220        3-1    0.21391 /_  119.8   0.97232
9 ... 1       7.1098 /_    0.3   0.97271    12.660        1-2     12.314 /_   30.3   0.97271
   -  2       7.1098 /_ -119.7   0.97271    12.660        2-3     12.314 /_  -89.7   0.97271
   -  3       7.1098 /_  120.3   0.97271    12.660        3-1     12.314 /_  150.3   0.97271
9BT . 1      0.12292 /_  -30.1   0.96777     0.220        1-2    0.21291 /_   -0.1   0.96777
   -  2      0.12292 /_ -150.1   0.96777     0.220        2-3    0.21291 /_ -120.1   0.96777
   -  3      0.12292 /_   89.9   0.96777     0.220        3-1    0.21291 /_  119.9   0.96777
10 .. 1       7.1018 /_    0.3   0.97162    12.660        1-2     12.301 /_   30.3   0.97162
   -  2       7.1018 /_ -119.7   0.97162    12.660        2-3     12.301 /_  -89.7   0.97162
   -  3       7.1018 /_  120.3   0.97162    12.660        3-1     12.301 /_  150.3   0.97162
10BT  1       0.1221 /_  -30.5   0.96126     0.220        1-2    0.21148 /_   -0.5   0.96126
   -  2       0.1221 /_ -150.5   0.96126     0.220        2-3    0.21148 /_ -120.5   0.96126
   -  3       0.1221 /_   89.5   0.96126     0.220        3-1    0.21148 /_  119.5   0.96126
11 .. 1       7.0793 /_    0.3   0.96854    12.660        1-2     12.262 /_   30.3   0.96854
   -  2       7.0793 /_ -119.7   0.96854    12.660        2-3     12.262 /_  -89.7   0.96854
   -  3       7.0793 /_  120.3   0.96854    12.660        3-1     12.262 /_  150.3   0.96854
11BT  1       0.1217 /_  -30.4   0.95815     0.220        1-2    0.21079 /_   -0.4   0.95815
   -  2       0.1217 /_ -150.4   0.95815     0.220        2-3    0.21079 /_ -120.4   0.95815
   -  3       0.1217 /_   89.6   0.95815     0.220        3-1    0.21079 /_  119.6   0.95815
12 .. 1       7.0588 /_    0.4   0.96574    12.660        1-2     12.226 /_   30.4   0.96574
   -  2       7.0588 /_ -119.6   0.96574    12.660        2-3     12.226 /_  -89.6   0.96574
   -  3       7.0588 /_  120.4   0.96574    12.660        3-1     12.226 /_  150.4   0.96574
12BT  1      0.12249 /_  -29.7   0.96438     0.220        1-2    0.21216 /_    0.3   0.96438
   -  2      0.12249 /_ -149.7   0.96438     0.220        2-3    0.21216 /_ -119.7   0.96438
   -  3      0.12249 /_   90.3   0.96438     0.220        3-1    0.21216 /_  120.3   0.96438
13 .. 1       7.0386 /_    0.4   0.96297    12.660        1-2     12.191 /_   30.4   0.96297
   -  2       7.0386 /_ -119.6   0.96297    12.660        2-3     12.191 /_  -89.6   0.96297
   -  3       7.0386 /_  120.4   0.96297    12.660        3-1     12.191 /_  150.4   0.96297
13BT  1      0.12214 /_  -29.7   0.96161     0.220        1-2    0.21155 /_    0.3   0.96161
   -  2      0.12214 /_ -149.7   0.96161     0.220        2-3    0.21155 /_ -119.7   0.96161
   -  3      0.12214 /_   90.3   0.96161     0.220        3-1    0.21155 /_  120.3   0.96161
15 .. 1       7.0148 /_    0.5   0.95972    12.660        1-2      12.15 /_   30.5   0.95972
   -  2       7.0148 /_ -119.5   0.95972    12.660        2-3      12.15 /_  -89.5   0.95972
   -  3       7.0148 /_  120.5   0.95972    12.660        3-1      12.15 /_  150.5   0.95972
15BT  1      0.12092 /_  -30.1   0.95199     0.220        1-2    0.20944 /_   -0.1   0.95199
   -  2      0.12092 /_ -150.1   0.95199     0.220        2-3    0.20944 /_ -120.1   0.95199
   -  3      0.12092 /_   89.9   0.95199     0.220        3-1    0.20944 /_  119.9   0.95199
16 .. 1       7.0087 /_    0.5   0.95888    12.660        1-2     12.139 /_   30.5   0.95888
   -  2       7.0087 /_ -119.5   0.95888    12.660        2-3     12.139 /_  -89.5   0.95888
   -  3       7.0087 /_  120.5   0.95888    12.660        3-1     12.139 /_  150.5   0.95888
16BT  1      0.12066 /_  -30.2   0.94998     0.220        1-2    0.20899 /_   -0.2   0.94998
   -  2      0.12066 /_ -150.2   0.94998     0.220        2-3    0.20899 /_ -120.2   0.94998
   -  3      0.12066 /_   89.8   0.94998     0.220        3-1    0.20899 /_  119.8   0.94998
17 .. 1       7.0087 /_    0.5   0.95887    12.660        1-2     12.139 /_   30.5   0.95887
   -  2       7.0087 /_ -119.5   0.95887    12.660        2-3     12.139 /_  -89.5   0.95887
   -  3       7.0087 /_  120.5   0.95887    12.660        3-1     12.139 /_  150.5   0.95887
17BT  1      0.12066 /_  -30.2   0.94997     0.220        1-2    0.20899 /_   -0.2   0.94997
   -  2      0.12066 /_ -150.2   0.94997     0.220        2-3    0.20899 /_ -120.2   0.94997
   -  3      0.12066 /_   89.8   0.94997     0.220        3-1    0.20899 /_  119.8   0.94997
19 .. 1       7.0031 /_    0.5   0.95811    12.660        1-2      12.13 /_   30.5   0.95811
   -  2       7.0031 /_ -119.5   0.95811    12.660        2-3      12.13 /_  -89.5   0.95811
   -  3       7.0031 /_  120.5   0.95811    12.660        3-1      12.13 /_  150.5   0.95811
19BT  1      0.12168 /_  -29.5   0.95795     0.220        1-2    0.21075 /_    0.5   0.95795
   -  2      0.12168 /_ -149.5   0.95795     0.220        2-3    0.21075 /_ -119.5   0.95795
   -  3      0.12168 /_   90.5   0.95795     0.220        3-1    0.21075 /_  120.5   0.95795
20 .. 1       6.9995 /_    0.5   0.95762    12.660        1-2     12.124 /_   30.5   0.95762
   -  2       6.9995 /_ -119.5   0.95762    12.660        2-3     12.124 /_  -89.5   0.95762
   -  3       6.9995 /_  120.5   0.95762    12.660        3-1     12.124 /_  150.5   0.95762
20BT  1      0.12059 /_  -30.1   0.94942     0.220        1-2    0.20887 /_   -0.1   0.94942
   -  2      0.12059 /_ -150.1   0.94942     0.220        2-3    0.20887 /_ -120.1   0.94942
   -  3      0.12059 /_   89.9   0.94942     0.220        3-1    0.20887 /_  119.9   0.94942
21 .. 1       6.9995 /_    0.5   0.95762    12.660        1-2     12.123 /_   30.5   0.95762
   -  2       6.9995 /_ -119.5   0.95762    12.660        2-3     12.123 /_  -89.5   0.95762
   -  3       6.9995 /_  120.5   0.95762    12.660        3-1     12.123 /_  150.5   0.95762
21BT  1      0.12152 /_  -29.5   0.95673     0.220        1-2    0.21048 /_    0.5   0.95673
   -  2      0.12152 /_ -149.5   0.95673     0.220        2-3    0.21048 /_ -119.5   0.95673
   -  3      0.12152 /_   90.5   0.95673     0.220        3-1    0.21048 /_  120.5   0.95673
23 .. 1       6.9978 /_    0.5   0.95739    12.660        1-2     12.121 /_   30.5   0.95739
   -  2       6.9978 /_ -119.5   0.95739    12.660        2-3     12.121 /_  -89.5   0.95739
   -  3       6.9978 /_  120.5   0.95739    12.660        3-1     12.121 /_  150.5   0.95739
23BT  1      0.12097 /_  -29.8   0.95237     0.220        1-2    0.20952 /_    0.2   0.95237
   -  2      0.12097 /_ -149.8   0.95237     0.220        2-3    0.20952 /_ -119.8   0.95237
   -  3      0.12097 /_   90.2   0.95237     0.220        3-1    0.20952 /_  120.2   0.95237
25 .. 1        6.996 /_    0.5   0.95715    12.660        1-2     12.117 /_   30.5   0.95715
   -  2        6.996 /_ -119.5   0.95715    12.660        2-3     12.117 /_  -89.5   0.95715
   -  3        6.996 /_  120.5   0.95715    12.660        3-1     12.117 /_  150.5   0.95715
25BT  1      0.12126 /_  -29.6   0.95465     0.220        1-2    0.21002 /_    0.4   0.95465
   -  2      0.12126 /_ -149.6   0.95465     0.220        2-3    0.21002 /_ -119.6   0.95465
   -  3      0.12126 /_   90.4   0.95465     0.220        3-1    0.21002 /_  120.4   0.95465
26 .. 1       6.9959 /_    0.5   0.95713    12.660        1-2     12.117 /_   30.5   0.95713
   -  2       6.9959 /_ -119.5   0.95713    12.660        2-3     12.117 /_  -89.5   0.95713
   -  3       6.9959 /_  120.5   0.95713    12.660        3-1     12.117 /_  150.5   0.95713
26BT  1      0.12125 /_  -29.6   0.95464     0.220        1-2    0.21002 /_    0.4   0.95464
   -  2      0.12125 /_ -149.6   0.95464     0.220        2-3    0.21002 /_ -119.6   0.95464
   -  3      0.12125 /_   90.4   0.95464     0.220        3-1    0.21002 /_  120.4   0.95464
27 .. 1       7.3058 /_    0.0   0.99953    12.660        1-2     12.654 /_   30.0   0.99953
   -  2       7.3058 /_ -120.0   0.99953    12.660        2-3     12.654 /_  -90.0   0.99953
   -  3       7.3058 /_  120.0   0.99953    12.660        3-1     12.654 /_  150.0   0.99953
27BT  1      0.25278 /_  -30.3   0.99508     0.440        1-2    0.43783 /_   -0.3   0.99508
   -  2      0.25278 /_ -150.3   0.99508     0.440        2-3    0.43783 /_ -120.3   0.99508
   -  3      0.25278 /_   89.7   0.99508     0.440        3-1    0.43783 /_  119.7   0.99508
28 .. 1       7.3053 /_    0.0   0.99945    12.660        1-2     12.653 /_   30.0   0.99945
   -  2       7.3053 /_ -120.0   0.99945    12.660        2-3     12.653 /_  -90.0   0.99945
   -  3       7.3053 /_  120.0   0.99945    12.660        3-1     12.653 /_  150.0   0.99945
28BT  1      0.25277 /_  -30.3     0.995     0.440        1-2     0.4378 /_   -0.3     0.995
   -  2      0.25277 /_ -150.3     0.995     0.440        2-3     0.4378 /_ -120.3     0.995
   -  3      0.25277 /_   89.7     0.995     0.440        3-1     0.4378 /_  119.7     0.995
32 .. 1       7.3016 /_    0.0   0.99896    12.660        1-2     12.647 /_   30.0   0.99896
   -  2       7.3016 /_ -120.0   0.99896    12.660        2-3     12.647 /_  -90.0   0.99896
   -  3       7.3016 /_  120.0   0.99896    12.660        3-1     12.647 /_  150.0   0.99896
32BT  1      0.25317 /_  -30.2   0.99662     0.440        1-2    0.43851 /_   -0.2   0.99662
   -  2      0.25317 /_ -150.2   0.99662     0.440        2-3    0.43851 /_ -120.2   0.99662
   -  3      0.25317 /_   89.8   0.99662     0.440        3-1    0.43851 /_  119.8   0.99662
33 .. 1       7.2992 /_    0.0   0.99862    12.660        1-2     12.643 /_   30.0   0.99862
   -  2       7.2992 /_ -120.0   0.99862    12.660        2-3     12.643 /_  -90.0   0.99862
   -  3       7.2992 /_  120.0   0.99862    12.660        3-1     12.643 /_  150.0   0.99862
33BT  1      0.25285 /_  -30.2   0.99535     0.440        1-2    0.43795 /_   -0.2   0.99535
   -  2      0.25285 /_ -150.2   0.99535     0.440        2-3    0.43795 /_ -120.2   0.99535
   -  3      0.25285 /_   89.8   0.99535     0.440        3-1    0.43795 /_  119.8   0.99535
34 .. 1       7.2987 /_    0.0   0.99856    12.660        1-2     12.642 /_   30.0   0.99856
   -  2       7.2987 /_ -120.0   0.99856    12.660        2-3     12.642 /_  -90.0   0.99856
   -  3       7.2987 /_  120.0   0.99856    12.660        3-1     12.642 /_  150.0   0.99856
34BT  1      0.25343 /_  -30.1   0.99763     0.440        1-2    0.43896 /_   -0.1   0.99763
   -  2      0.25343 /_ -150.1   0.99763     0.440        2-3    0.43896 /_ -120.1   0.99763
   -  3      0.25343 /_   89.9   0.99763     0.440        3-1    0.43896 /_  119.9   0.99763
27E . 1       7.3057 /_    0.0   0.99952    12.660        1-2     12.654 /_   30.0   0.99952
   -  2       7.3057 /_ -120.0   0.99952    12.660        2-3     12.654 /_  -90.0   0.99952
   -  3       7.3057 /_  120.0   0.99952    12.660        3-1     12.654 /_  150.0   0.99952
27EBT 1      0.25278 /_  -30.3   0.99507     0.440        1-2    0.43783 /_   -0.3   0.99507
   -  2      0.25278 /_ -150.3   0.99507     0.440        2-3    0.43783 /_ -120.3   0.99507
   -  3      0.25278 /_   89.7   0.99507     0.440        3-1    0.43783 /_  119.7   0.99507
28E . 1       7.3047 /_    0.0   0.99937    12.660        1-2     12.652 /_   30.0   0.99937
   -  2       7.3047 /_ -120.0   0.99937    12.660        2-3     12.652 /_  -90.0   0.99937
   -  3       7.3047 /_  120.0   0.99937    12.660        3-1     12.652 /_  150.0   0.99937
28EBT 1      0.25274 /_  -30.3   0.99492     0.440        1-2    0.43777 /_   -0.3   0.99492
   -  2      0.25274 /_ -150.3   0.99492     0.440        2-3    0.43777 /_ -120.3   0.99492
   -  3      0.25274 /_   89.7   0.99492     0.440        3-1    0.43777 /_  119.7   0.99492
66 .. 1       7.3035 /_    0.0   0.99922    12.660        1-2      12.65 /_   30.0   0.99922
   -  2       7.3035 /_ -120.0   0.99922    12.660        2-3      12.65 /_  -90.0   0.99922
   -  3       7.3035 /_  120.0   0.99922    12.660        3-1      12.65 /_  150.0   0.99922
66BT  1      0.25279 /_  -30.3   0.99511     0.440        1-2    0.43785 /_   -0.3   0.99511
   -  2      0.25279 /_ -150.3   0.99511     0.440        2-3    0.43785 /_ -120.3   0.99511
   -  3      0.25279 /_   89.7   0.99511     0.440        3-1    0.43785 /_  119.7   0.99511
67 .. 1       7.3035 /_    0.0   0.99922    12.660        1-2      12.65 /_   30.0   0.99922
   -  2       7.3035 /_ -120.0   0.99922    12.660        2-3      12.65 /_  -90.0   0.99922
   -  3       7.3035 /_  120.0   0.99922    12.660        3-1      12.65 /_  150.0   0.99922
67BT  1      0.25279 /_  -30.3   0.99511     0.440        1-2    0.43785 /_   -0.3   0.99511
   -  2      0.25279 /_ -150.3   0.99511     0.440        2-3    0.43785 /_ -120.3   0.99511
   -  3      0.25279 /_   89.7   0.99511     0.440        3-1    0.43785 /_  119.7   0.99511
68 .. 1       7.3004 /_    0.0   0.99879    12.660        1-2     12.645 /_   30.0   0.99879
   -  2       7.3004 /_ -120.0   0.99879    12.660        2-3     12.645 /_  -90.0   0.99879
   -  3       7.3004 /_  120.0   0.99879    12.660        3-1     12.645 /_  150.0   0.99879
68BT  1      0.25367 /_  -30.0   0.99856     0.440        1-2    0.43937 /_    0.0   0.99856
   -  2      0.25367 /_ -150.0   0.99856     0.440        2-3    0.43937 /_ -120.0   0.99856
   -  3      0.25367 /_   90.0   0.99856     0.440        3-1    0.43937 /_  120.0   0.99856
70 .. 1       7.2989 /_    0.0   0.99859    12.660        1-2     12.642 /_   30.0   0.99859
   -  2       7.2989 /_ -120.0   0.99859    12.660        2-3     12.642 /_  -90.0   0.99859
   -  3       7.2989 /_  120.0   0.99859    12.660        3-1     12.642 /_  150.0   0.99859
70BT  1      0.25342 /_  -30.1   0.99757     0.440        1-2    0.43893 /_   -0.1   0.99757
   -  2      0.25342 /_ -150.1   0.99757     0.440        2-3    0.43893 /_ -120.1   0.99757
   -  3      0.25342 /_   89.9   0.99757     0.440        3-1    0.43893 /_  119.9   0.99757
89 .. 1       7.2985 /_    0.0   0.99852    12.660        1-2     12.641 /_   30.0   0.99852
   -  2       7.2985 /_ -120.0   0.99852    12.660        2-3     12.641 /_  -90.0   0.99852
   -  3       7.2985 /_  120.0   0.99852    12.660        3-1     12.641 /_  150.0   0.99852
89BT  1      0.25213 /_  -30.1   0.99252     0.440        1-2    0.43671 /_   -0.1   0.99252
   -  2      0.25213 /_ -150.1   0.99252     0.440        2-3    0.43671 /_ -120.1   0.99252
   -  3      0.25213 /_   89.9   0.99252     0.440        3-1    0.43671 /_  119.9   0.99252
90 .. 1       7.2985 /_    0.0   0.99852    12.660        1-2     12.641 /_   30.0   0.99852
   -  2       7.2985 /_ -120.0   0.99852    12.660        2-3     12.641 /_  -90.0   0.99852
   -  3       7.2985 /_  120.0   0.99852    12.660        3-1     12.641 /_  150.0   0.99852
90BT  1      0.25213 /_  -30.1   0.99252     0.440        1-2    0.43671 /_   -0.1   0.99252
   -  2      0.25213 /_ -150.1   0.99252     0.440        2-3    0.43671 /_ -120.1   0.99252
   -  3      0.25213 /_   89.9   0.99252     0.440        3-1    0.43671 /_  119.9   0.99252
36 .. 1       7.2968 /_    0.0    0.9983    12.660        1-2     12.638 /_   30.0    0.9983
   -  2       7.2968 /_ -120.0    0.9983    12.660        2-3     12.638 /_  -90.0    0.9983
   -  3       7.2968 /_  120.0    0.9983    12.660        3-1     12.638 /_  150.0    0.9983
36BT  1      0.12611 /_  -30.4   0.99287     0.220        1-2    0.21843 /_   -0.4   0.99287
   -  2      0.12611 /_ -150.4   0.99287     0.220        2-3    0.21843 /_ -120.4   0.99287
   -  3      0.12611 /_   89.6   0.99287     0.220        3-1    0.21843 /_  119.6   0.99287
37 .. 1       7.2724 /_   -0.1   0.99496    12.660        1-2     12.596 /_   29.9   0.99496
   -  2       7.2724 /_ -120.1   0.99496    12.660        2-3     12.596 /_  -90.1   0.99496
   -  3       7.2724 /_  119.9   0.99496    12.660        3-1     12.596 /_  149.9   0.99496
37BT  1      0.12531 /_  -30.2   0.98659     0.220        1-2    0.21705 /_   -0.2   0.98659
   -  2      0.12531 /_ -150.2   0.98659     0.220        2-3    0.21705 /_ -120.2   0.98659
...
